Circuit: * D:\Hardik\NSUT\Studies\MEA\Practicals\Simulations\555 Timer IC.asc

Limiting rise time of source v1 to 1e-006
Limiting fall time of source v1 to 1e-006
Direct Newton iteration for .op point succeeded.

Date: Tue Dec 07 19:39:59 2021
Total elapsed time: 0.059 seconds.

tnom = 27
temp = 27
method = modified trap
totiter = 3246
traniter = 3238
tranpoints = 1361
accept = 1302
rejected = 59
matrix size = 15
fillins = 0
solver = Normal
Matrix Compiler1: 416 bytes object code size  0.1/0.1/[0.0]
Matrix Compiler2: 783 bytes object code size  0.1/0.1/[0.1]

