Circuit: * D:\Hardik\NSUT\Studies\MEA\Practicals\Simulations\BJT current Mirror (Prac1).asc

Direct Newton iteration for .op point succeeded.

Date: Tue Dec 07 18:39:50 2021
Total elapsed time: 0.176 seconds.

tnom = 27
temp = 27
method = modified trap
totiter = 2089
traniter = 2082
tranpoints = 1042
accept = 1042
rejected = 0
matrix size = 7
fillins = 0
solver = Normal
Matrix Compiler1: 276 bytes object code size  0.1/0.0/[0.0]
Matrix Compiler2: off  [0.1]/0.1/0.1

