Circuit: * D:\Hardik\NSUT\Studies\MEA\Practicals\Simulations\Cascode Amplifier (BJT).asc

WARNING: Node V01 is floating.

WARNING: Less than two connections to node V01.  This node is used by C5.
Direct Newton iteration for .op point succeeded.

Date: Tue Dec 07 19:08:51 2021
Total elapsed time: 0.046 seconds.

tnom = 27
temp = 27
method = modified trap
totiter = 2089
traniter = 2082
tranpoints = 1042
accept = 1042
rejected = 0
matrix size = 11
fillins = 0
solver = Normal
Matrix Compiler1: 690 bytes object code size  0.1/0.1/[0.0]
Matrix Compiler2: 869 bytes object code size  0.1/0.1/[0.1]

