Circuit: * D:\Hardik\NSUT\Studies\MEA\Practicals\Draft7.asc

WARNING: Less than two connections to node NC_01.  This node is used by V4.
Direct Newton iteration for .op point succeeded.

Date: Tue Dec 07 12:57:44 2021
Total elapsed time: 0.056 seconds.

tnom = 27
temp = 27
method = modified trap
totiter = 2120
traniter = 2082
tranpoints = 1042
accept = 1042
rejected = 0
matrix size = 13
fillins = 0
solver = Normal
Matrix Compiler1: 584 bytes object code size  0.3/0.2/[0.1]
Matrix Compiler2: 979 bytes object code size  0.2/0.3/[0.1]

