Circuit: * D:\Hardik\NSUT\Studies\MEA\Practicals\Draft10.asc

Direct Newton iteration for .op point succeeded.

Date: Mon Dec 06 16:37:00 2021
Total elapsed time: 0.076 seconds.

tnom = 27
temp = 27
method = modified trap
totiter = 2110
traniter = 2092
tranpoints = 1047
accept = 1046
rejected = 1
matrix size = 11
fillins = 2
solver = Normal
Matrix Compiler1: 570 bytes object code size  0.2/0.1/[0.1]
Matrix Compiler2: 1.10 KB object code size  0.1/0.1/[0.1]

