Circuit: * D:\Hardik\NSUT\Studies\MEA\Practicals\Simulations\Draft2.asc

Direct Newton iteration for .op point succeeded.

Date: Tue Dec 07 19:53:41 2021
Total elapsed time: 0.050 seconds.

tnom = 27
temp = 27
method = modified trap
totiter = 2091
traniter = 2082
tranpoints = 1042
accept = 1042
rejected = 0
matrix size = 17
fillins = 1
solver = Normal
Matrix Compiler1: 1.06 KB object code size  0.2/0.1/[0.1]
Matrix Compiler2: off  [0.1]/0.1/0.1

