Circuit: * D:\Hardik\NSUT\Studies\MEA\Practicals\Draft5.asc

Direct Newton iteration for .op point succeeded.

Date: Mon Dec 06 13:29:47 2021
Total elapsed time: 0.292 seconds.

tnom = 27
temp = 27
method = modified trap
totiter = 2089
traniter = 2082
tranpoints = 1042
accept = 1042
rejected = 0
matrix size = 7
fillins = 0
solver = Normal
Matrix Compiler1: 276 bytes object code size  0.1/0.1/[0.0]
Matrix Compiler2: off  [0.0]/0.1/0.1

