Circuit: * D:\Hardik\NSUT\Studies\MEA\Practicals\Draft8.asc

WARNING: Node VOUT is floating.

WARNING: Less than two connections to node VOUT.  This node is used by C4.
Direct Newton iteration for .op point succeeded.

Date: Mon Dec 06 15:50:08 2021
Total elapsed time: 0.040 seconds.

tnom = 27
temp = 27
method = modified trap
totiter = 6210
traniter = 6202
tranpoints = 1891
accept = 1427
rejected = 464
matrix size = 8
fillins = 2
solver = Normal
Matrix Compiler1: 558 bytes object code size  0.2/0.1/[0.1]
Matrix Compiler2: 676 bytes object code size  0.1/0.1/[0.1]

