Circuit: * D:\Hardik\NSUT\Studies\MEA\Practicals\Draft12.asc

Direct Newton iteration for .op point succeeded.

Date: Mon Dec 06 17:08:01 2021
Total elapsed time: 0.096 seconds.

tnom = 27
temp = 27
method = modified trap
totiter = 3393
traniter = 3378
tranpoints = 1423
accept = 1281
rejected = 142
matrix size = 11
fillins = 2
solver = Normal
Matrix Compiler1: 588 bytes object code size  0.2/0.1/[0.1]
Matrix Compiler2: 1.10 KB object code size  0.2/0.2/[0.1]

