Circuit: * D:\Hardik\NSUT\Studies\MEA\Practicals\Draft15.asc

Limiting rise time of source v1 to 1e-006
Limiting fall time of source v1 to 1e-006
Direct Newton iteration for .op point succeeded.

Date: Mon Dec 06 20:39:02 2021
Total elapsed time: 1.874 seconds.

tnom = 27
temp = 27
method = modified trap
totiter = 22392
traniter = 22384
tranpoints = 7217
accept = 5875
rejected = 1342
matrix size = 16
fillins = 0
solver = Normal
Matrix Compiler1: 430 bytes object code size  0.2/0.1/[0.0]
Matrix Compiler2: 836 bytes object code size  0.1/0.1/[0.0]

