Circuit: * D:\Hardik\NSUT\Studies\MEA\Practicals\Simulations\MOS current Mirror (Prac2).asc


Date: Tue Dec 07 18:43:04 2021
Total elapsed time: 0.083 seconds.

tnom = 27
temp = 27
method = trap
totiter = 49
traniter = 0
tranpoints = 0
accept = 0
rejected = 0
matrix size = 7
fillins = 0
solver = Normal
Matrix Compiler1: 294 bytes object code size
Matrix Compiler2: 461 bytes object code size
