Circuit: * D:\Hardik\NSUT\Studies\MEA\Practicals\Simulations\Op-Amp feedback (CCCS).asc

Direct Newton iteration for .op point succeeded.

Date: Tue Dec 07 19:02:23 2021
Total elapsed time: 0.070 seconds.

tnom = 27
temp = 27
method = modified trap
totiter = 3863
traniter = 3836
tranpoints = 1467
accept = 1284
rejected = 183
matrix size = 12
fillins = 3
solver = Normal
Matrix Compiler1: 624 bytes object code size  0.1/0.1/[0.1]
Matrix Compiler2: 1.10 KB object code size  0.1/0.1/[0.1]

