Circuit: * D:\Hardik\NSUT\Studies\MEA\Practicals\Simulations\Op-Amp feedback (VCCS).asc

Direct Newton iteration for .op point succeeded.

Date: Tue Dec 07 18:51:11 2021
Total elapsed time: 0.064 seconds.

tnom = 27
temp = 27
method = modified trap
totiter = 3393
traniter = 3378
tranpoints = 1423
accept = 1281
rejected = 142
matrix size = 11
fillins = 2
solver = Normal
Matrix Compiler1: 588 bytes object code size  0.1/0.1/[0.0]
Matrix Compiler2: 1.10 KB object code size  0.1/0.1/[0.1]

