Circuit: * D:\Hardik\NSUT\Studies\MEA\Practicals\Simulations\Op-Amp feedback (VCVS).asc

Direct Newton iteration for .op point succeeded.

Date: Tue Dec 07 18:49:36 2021
Total elapsed time: 0.058 seconds.

tnom = 27
temp = 27
method = modified trap
totiter = 2110
traniter = 2092
tranpoints = 1047
accept = 1046
rejected = 1
matrix size = 11
fillins = 2
solver = Normal
Matrix Compiler1: 570 bytes object code size  0.1/0.1/[0.1]
Matrix Compiler2: 1.10 KB object code size  0.1/0.1/[0.1]

