Circuit: * D:\Hardik\NSUT\Studies\MEA\Practicals\Simulations\Op-Amp feedback (CCVS).asc

Direct Newton iteration failed to find .op point.  (Use ".option noopiter" to skip.)
Starting Gmin stepping
Gmin = 10
Gmin = 1.07374
vernier = 0.5
vernier = 0.25
vernier = 0.125
vernier = 0.0625
Gmin = 1.08884
vernier = 0.03125
vernier = 0.015625
Gmin = 1.03122
vernier = 0.0078125
vernier = 0.0104167
vernier = 0.00520833
Gmin = 1.01724
vernier = 0.00260417
vernier = 0.00347222
Gmin = 1.01042
vernier = 0.00173611
vernier = 0.00231481
vernier = 0.00115741
Gmin = 1.00852
vernier = 0.00154321
vernier = 0.000771604
Gmin = 1.00667
vernier = 0.00102881
vernier = 0.000514403
vernier = 0.00068587
Gmin = 1.00542
vernier = 0.000514403
vernier = 0.00068587
vernier = 0.000514402
Gmin = 1.00461
Gmin = 0
Gmin stepping failed

Starting source stepping with srcstepmethod=0
Source Step = 3.0303%
Source Step = 33.3333%
Source Step = 63.6364%
Source Step = 93.9394%
Source stepping succeeded in finding the operating point.


Date: Tue Dec 07 19:00:28 2021
Total elapsed time: 0.119 seconds.

tnom = 27
temp = 27
method = modified trap
totiter = 8831
traniter = 3100
tranpoints = 1370
accept = 1246
rejected = 124
matrix size = 9
fillins = 2
solver = Normal
Matrix Compiler1: 542 bytes object code size  0.1/0.1/[0.1]
Matrix Compiler2:      67 opcodes  0.1/[0.1]/0.1

