Circuit: * D:\Hardik\NSUT\Studies\MEA\Practicals\Simulations\Wien Bridge Oscillator (Op-Amp).asc

Direct Newton iteration for .op point succeeded.

Date: Tue Dec 07 19:06:38 2021
Total elapsed time: 0.645 seconds.

tnom = 27
temp = 27
method = modified trap
totiter = 176138
traniter = 176104
tranpoints = 54167
accept = 38424
rejected = 15743
matrix size = 11
fillins = 7
solver = Normal
Matrix Compiler1: 938 bytes object code size  0.2/0.1/[0.1]
Matrix Compiler2: off  [0.1]/0.1/0.1

